<?xml version="1.0" encoding="utf-8"?>
<!DOCTYPE population SYSTEM "http://www.matsim.org/files/dtd/population_v6.dtd">
<population><person id="3572666254"><plan selected="yes"><activity end_time="00:00:00" type="h" x="16141225.270136982" y="-4564890.866646032" /><leg mode="car" /><activity end_time="01:00:00" type="w" x="16143126.101003256" y="-4567282.359673435" /></plan></person><person id="1960084902"><plan selected="yes"><activity end_time="00:00:00" type="h" x="16140299.578830754" y="-4564784.395909091" /><leg mode="car" /><activity end_time="01:00:00" type="w" x="16143126.101003256" y="-4567282.359673435" /></plan></person><person id="6870793511"><plan selected="yes"><activity end_time="00:00:00" type="h" x="16141522.81803007" y="-4565186.312182228" /><leg mode="car" /><activity end_time="01:00:00" type="w" x="16143126.101003256" y="-4567282.359673435" /></plan></person><person id="6263457140"><plan selected="yes"><activity end_time="00:00:00" type="h" x="16140807.821957732" y="-4564143.183071136" /><leg mode="car" /><activity end_time="01:00:00" type="w" x="16143126.101003256" y="-4567282.359673435" /></plan></person><person id="4428794642"><plan selected="yes"><activity end_time="00:00:00" type="h" x="16140722.232715733" y="-4564877.435368032" /><leg mode="car" /><activity end_time="01:00:00" type="w" x="16143126.101003256" y="-4567282.359673435" /></plan></person><person id="6491506097"><plan selected="yes"><activity end_time="00:00:00" type="h" x="16141354.109219724" y="-4564994.37961605" /><leg mode="car" /><activity end_time="01:00:00" type="w" x="16143126.101003256" y="-4567282.359673435" /></plan></person><person id="7536109613"><plan selected="yes"><activity end_time="00:00:00" type="h" x="16141432.706791004" y="-4564224.247171278" /><leg mode="car" /><activity end_time="01:00:00" type="w" x="16143126.101003256" y="-4567282.359673435" /></plan></person><person id="3809127942"><plan selected="yes"><activity end_time="00:00:00" type="h" x="16140652.679470032" y="-4564420.086161754" /><leg mode="car" /><activity end_time="01:00:00" type="w" x="16143126.101003256" y="-4567282.359673435" /></plan></person><person id="6932226579"><plan selected="yes"><activity end_time="00:00:00" type="h" x="16141104.036558459" y="-4564609.503959216" /><leg mode="car" /><activity end_time="01:00:00" type="w" x="16143126.101003256" y="-4567282.359673435" /></plan></person><person id="4924270695"><plan selected="yes"><activity end_time="00:00:00" type="h" x="16140169.040363126" y="-4564982.179552659" /><leg mode="car" /><activity end_time="01:00:00" type="w" x="16143126.101003256" y="-4567282.359673435" /></plan></person><person id="5792045565"><plan selected="yes"><activity end_time="00:00:00" type="h" x="16140205.49016527" y="-4564453.287744781" /><leg mode="car" /><activity end_time="01:00:00" type="w" x="16143126.101003256" y="-4567282.359673435" /></plan></person><person id="9126733331"><plan selected="yes"><activity end_time="00:00:00" type="h" x="16140182.862642074" y="-4565190.384528715" /><leg mode="car" /><activity end_time="01:00:00" type="w" x="16143126.101003256" y="-4567282.359673435" /></plan></person><person id="6122525332"><plan selected="yes"><activity end_time="00:00:00" type="h" x="16140262.287389528" y="-4565164.003189708" /><leg mode="car" /><activity end_time="01:00:00" type="w" x="16143126.101003256" y="-4567282.359673435" /></plan></person><person id="7680734292"><plan selected="yes"><activity end_time="00:00:00" type="h" x="16141553.928706937" y="-4564194.122660856" /><leg mode="car" /><activity end_time="01:00:00" type="w" x="16143126.101003256" y="-4567282.359673435" /></plan></person><person id="9788510847"><plan selected="yes"><activity end_time="00:00:00" type="h" x="16141126.130490398" y="-4564304.51222346" /><leg mode="car" /><activity end_time="01:00:00" type="w" x="16143126.101003256" y="-4567282.359673435" /></plan></person><person id="9979115371"><plan selected="yes"><activity end_time="00:00:00" type="h" x="16140463.664617194" y="-4564269.51296372" /><leg mode="car" /><activity end_time="01:00:00" type="w" x="16143126.101003256" y="-4567282.359673435" /></plan></person><person id="4264232140"><plan selected="yes"><activity end_time="00:00:00" type="h" x="16141378.808568968" y="-4565165.424470295" /><leg mode="car" /><activity end_time="01:00:00" type="w" x="16143126.101003256" y="-4567282.359673435" /></plan></person><person id="9671368228"><plan selected="yes"><activity end_time="00:00:00" type="h" x="16140231.372598846" y="-4565122.2937459955" /><leg mode="car" /><activity end_time="01:00:00" type="w" x="16143126.101003256" y="-4567282.359673435" /></plan></person><person id="7815019304"><plan selected="yes"><activity end_time="00:00:00" type="h" x="16140812.37527884" y="-4564888.946086305" /><leg mode="car" /><activity end_time="01:00:00" type="w" x="16143126.101003256" y="-4567282.359673435" /></plan></person><person id="8003807294"><plan selected="yes"><activity end_time="00:00:00" type="h" x="16140795.309016563" y="-4564818.663209363" /><leg mode="car" /><activity end_time="01:00:00" type="w" x="16143126.101003256" y="-4567282.359673435" /></plan></person><person id="9408986807"><plan selected="yes"><activity end_time="00:00:00" type="h" x="16140886.4264155" y="-4564974.8558731945" /><leg mode="car" /><activity end_time="01:00:00" type="w" x="16143126.101003256" y="-4567282.359673435" /></plan></person><person id="1052841111"><plan selected="yes"><activity end_time="00:00:00" type="h" x="16141050.291826848" y="-4564639.1074218275" /><leg mode="car" /><activity end_time="01:00:00" type="w" x="16143126.101003256" y="-4567282.359673435" /></plan></person><person id="5847071365"><plan selected="yes"><activity end_time="00:00:00" type="h" x="16140297.94713807" y="-4565154.705218838" /><leg mode="car" /><activity end_time="01:00:00" type="w" x="16143126.101003256" y="-4567282.359673435" /></plan></person><person id="6945597867"><plan selected="yes"><activity end_time="00:00:00" type="h" x="16141560.332529198" y="-4564182.181471829" /><leg mode="car" /><activity end_time="01:00:00" type="w" x="16143126.101003256" y="-4567282.359673435" /></plan></person><person id="7794558968"><plan selected="yes"><activity end_time="00:00:00" type="h" x="16140776.865728384" y="-4564729.576907795" /><leg mode="car" /><activity end_time="01:00:00" type="w" x="16143126.101003256" y="-4567282.359673435" /></plan></person><person id="8697351183"><plan selected="yes"><activity end_time="00:00:00" type="h" x="16141628.508902289" y="-4564442.700373588" /><leg mode="car" /><activity end_time="01:00:00" type="w" x="16143126.101003256" y="-4567282.359673435" /></plan></person><person id="1215429761"><plan selected="yes"><activity end_time="00:00:00" type="h" x="16141112.368024938" y="-4564159.571800579" /><leg mode="car" /><activity end_time="01:00:00" type="w" x="16143126.101003256" y="-4567282.359673435" /></plan></person><person id="5722410173"><plan selected="yes"><activity end_time="00:00:00" type="h" x="16140263.77214037" y="-4564480.722914218" /><leg mode="car" /><activity end_time="01:00:00" type="w" x="16143126.101003256" y="-4567282.359673435" /></plan></person><person id="1578552316"><plan selected="yes"><activity end_time="00:00:00" type="h" x="16141064.530500228" y="-4564526.053658999" /><leg mode="car" /><activity end_time="01:00:00" type="w" x="16143126.101003256" y="-4567282.359673435" /></plan></person><person id="8912422211"><plan selected="yes"><activity end_time="00:00:00" type="h" x="16141449.517988266" y="-4564916.96423266" /><leg mode="car" /><activity end_time="01:00:00" type="w" x="16143126.101003256" y="-4567282.359673435" /></plan></person><person id="1801492537"><plan selected="yes"><activity end_time="00:00:00" type="h" x="16141390.546526713" y="-4564974.316264786" /><leg mode="car" /><activity end_time="01:00:00" type="w" x="16143126.101003256" y="-4567282.359673435" /></plan></person><person id="3560212325"><plan selected="yes"><activity end_time="00:00:00" type="h" x="16141466.96471997" y="-4564860.111196759" /><leg mode="car" /><activity end_time="01:00:00" type="w" x="16143126.101003256" y="-4567282.359673435" /></plan></person><person id="3997854850"><plan selected="yes"><activity end_time="00:00:00" type="h" x="16141312.624975022" y="-4564280.04657805" /><leg mode="car" /><activity end_time="01:00:00" type="w" x="16143126.101003256" y="-4567282.359673435" /></plan></person><person id="4312695974"><plan selected="yes"><activity end_time="00:00:00" type="h" x="16141192.842763554" y="-4564732.207303383" /><leg mode="car" /><activity end_time="01:00:00" type="w" x="16143126.101003256" y="-4567282.359673435" /></plan></person><person id="4261175944"><plan selected="yes"><activity end_time="00:00:00" type="h" x="16140505.122694552" y="-4564562.219529285" /><leg mode="car" /><activity end_time="01:00:00" type="w" x="16143126.101003256" y="-4567282.359673435" /></plan></person><person id="3897109580"><plan selected="yes"><activity end_time="00:00:00" type="h" x="16140507.798462044" y="-4564481.335936608" /><leg mode="car" /><activity end_time="01:00:00" type="w" x="16143126.101003256" y="-4567282.359673435" /></plan></person><person id="1287284366"><plan selected="yes"><activity end_time="00:00:00" type="h" x="16140208.604564318" y="-4564787.033283926" /><leg mode="car" /><activity end_time="01:00:00" type="w" x="16143126.101003256" y="-4567282.359673435" /></plan></person><person id="9107900853"><plan selected="yes"><activity end_time="00:00:00" type="h" x="16141179.771940883" y="-4565088.803959574" /><leg mode="car" /><activity end_time="01:00:00" type="w" x="16143126.101003256" y="-4567282.359673435" /></plan></person><person id="6908835854"><plan selected="yes"><activity end_time="00:00:00" type="h" x="16140626.537888838" y="-4564339.912100221" /><leg mode="car" /><activity end_time="01:00:00" type="w" x="16143126.101003256" y="-4567282.359673435" /></plan></person><person id="5631093281"><plan selected="yes"><activity end_time="00:00:00" type="h" x="16141628.986037161" y="-4564415.176835957" /><leg mode="car" /><activity end_time="01:00:00" type="w" x="16143126.101003256" y="-4567282.359673435" /></plan></person><person id="6477186464"><plan selected="yes"><activity end_time="00:00:00" type="h" x="16141082.477366297" y="-4564529.686483928" /><leg mode="car" /><activity end_time="01:00:00" type="w" x="16143126.101003256" y="-4567282.359673435" /></plan></person><person id="4353052519"><plan selected="yes"><activity end_time="00:00:00" type="h" x="16140770.299733762" y="-4564578.884252086" /><leg mode="car" /><activity end_time="01:00:00" type="w" x="16143126.101003256" y="-4567282.359673435" /></plan></person><person id="8190458606"><plan selected="yes"><activity end_time="00:00:00" type="h" x="16141355.338928917" y="-4564899.66652209" /><leg mode="car" /><activity end_time="01:00:00" type="w" x="16143126.101003256" y="-4567282.359673435" /></plan></person><person id="6548632103"><plan selected="yes"><activity end_time="00:00:00" type="h" x="16140169.035220595" y="-4564864.5010688845" /><leg mode="car" /><activity end_time="01:00:00" type="w" x="16143126.101003256" y="-4567282.359673435" /></plan></person><person id="3830176811"><plan selected="yes"><activity end_time="00:00:00" type="h" x="16140463.56561057" y="-4564249.582832881" /><leg mode="car" /><activity end_time="01:00:00" type="w" x="16143126.101003256" y="-4567282.359673435" /></plan></person><person id="1494416695"><plan selected="yes"><activity end_time="00:00:00" type="h" x="16141188.02257028" y="-4564538.782730983" /><leg mode="car" /><activity end_time="01:00:00" type="w" x="16143126.101003256" y="-4567282.359673435" /></plan></person><person id="3718680532"><plan selected="yes"><activity end_time="00:00:00" type="h" x="16140230.758714546" y="-4565162.600354343" /><leg mode="car" /><activity end_time="01:00:00" type="w" x="16143126.101003256" y="-4567282.359673435" /></plan></person><person id="2385231862"><plan selected="yes"><activity end_time="00:00:00" type="h" x="16140431.43206743" y="-4565142.362852115" /><leg mode="car" /><activity end_time="01:00:00" type="w" x="16143126.101003256" y="-4567282.359673435" /></plan></person><person id="1738522651"><plan selected="yes"><activity end_time="00:00:00" type="h" x="16140952.355307864" y="-4564840.2755865175" /><leg mode="car" /><activity end_time="01:00:00" type="w" x="16143126.101003256" y="-4567282.359673435" /></plan></person><person id="8177347900"><plan selected="yes"><activity end_time="00:00:00" type="h" x="16140178.48063293" y="-4564918.531773352" /><leg mode="car" /><activity end_time="01:00:00" type="w" x="16143126.101003256" y="-4567282.359673435" /></plan></person><person id="7833201688"><plan selected="yes"><activity end_time="00:00:00" type="h" x="16141492.172533274" y="-4565189.971061914" /><leg mode="car" /><activity end_time="01:00:00" type="w" x="16143126.101003256" y="-4567282.359673435" /></plan></person><person id="5440237161"><plan selected="yes"><activity end_time="00:00:00" type="h" x="16140794.11333698" y="-4564688.241909539" /><leg mode="car" /><activity end_time="01:00:00" type="w" x="16143126.101003256" y="-4567282.359673435" /></plan></person><person id="3066442538"><plan selected="yes"><activity end_time="00:00:00" type="h" x="16140416.560463222" y="-4564531.470402577" /><leg mode="car" /><activity end_time="01:00:00" type="w" x="16143126.101003256" y="-4567282.359673435" /></plan></person><person id="8525498452"><plan selected="yes"><activity end_time="00:00:00" type="h" x="16140796.097239219" y="-4564747.374575964" /><leg mode="car" /><activity end_time="01:00:00" type="w" x="16143126.101003256" y="-4567282.359673435" /></plan></person><person id="6194155086"><plan selected="yes"><activity end_time="00:00:00" type="h" x="16140565.001239903" y="-4564291.339290948" /><leg mode="car" /><activity end_time="01:00:00" type="w" x="16143126.101003256" y="-4567282.359673435" /></plan></person><person id="8221640647"><plan selected="yes"><activity end_time="00:00:00" type="h" x="16140698.996904772" y="-4564758.906565953" /><leg mode="car" /><activity end_time="01:00:00" type="w" x="16143126.101003256" y="-4567282.359673435" /></plan></person><person id="9884450250"><plan selected="yes"><activity end_time="00:00:00" type="h" x="16141354.425942296" y="-4565148.654390696" /><leg mode="car" /><activity end_time="01:00:00" type="w" x="16143126.101003256" y="-4567282.359673435" /></plan></person><person id="8156832257"><plan selected="yes"><activity end_time="00:00:00" type="h" x="16140198.558424054" y="-4564318.284017863" /><leg mode="car" /><activity end_time="01:00:00" type="w" x="16143126.101003256" y="-4567282.359673435" /></plan></person><person id="6196867346"><plan selected="yes"><activity end_time="00:00:00" type="h" x="16141089.925568221" y="-4564791.266784532" /><leg mode="car" /><activity end_time="01:00:00" type="w" x="16143126.101003256" y="-4567282.359673435" /></plan></person><person id="6387372762"><plan selected="yes"><activity end_time="00:00:00" type="h" x="16141018.472938191" y="-4564243.790672295" /><leg mode="car" /><activity end_time="01:00:00" type="w" x="16143126.101003256" y="-4567282.359673435" /></plan></person><person id="9802861437"><plan selected="yes"><activity end_time="00:00:00" type="h" x="16141510.290984383" y="-4564529.190416212" /><leg mode="car" /><activity end_time="01:00:00" type="w" x="16143126.101003256" y="-4567282.359673435" /></plan></person><person id="5397642899"><plan selected="yes"><activity end_time="00:00:00" type="h" x="16140658.121894006" y="-4564324.316275083" /><leg mode="car" /><activity end_time="01:00:00" type="w" x="16143126.101003256" y="-4567282.359673435" /></plan></person><person id="9963681068"><plan selected="yes"><activity end_time="00:00:00" type="h" x="16141541.100528868" y="-4564359.174084475" /><leg mode="car" /><activity end_time="01:00:00" type="w" x="16143126.101003256" y="-4567282.359673435" /></plan></person><person id="7579464001"><plan selected="yes"><activity end_time="00:00:00" type="h" x="16140634.699224753" y="-4564866.460322505" /><leg mode="car" /><activity end_time="01:00:00" type="w" x="16143126.101003256" y="-4567282.359673435" /></plan></person><person id="4637291209"><plan selected="yes"><activity end_time="00:00:00" type="h" x="16140933.65752351" y="-4564717.929592957" /><leg mode="car" /><activity end_time="01:00:00" type="w" x="16143126.101003256" y="-4567282.359673435" /></plan></person><person id="8360494256"><plan selected="yes"><activity end_time="00:00:00" type="h" x="16140999.355048707" y="-4564440.595469269" /><leg mode="car" /><activity end_time="01:00:00" type="w" x="16143126.101003256" y="-4567282.359673435" /></plan></person><person id="6856454754"><plan selected="yes"><activity end_time="00:00:00" type="h" x="16140985.71129069" y="-4565136.327686989" /><leg mode="car" /><activity end_time="01:00:00" type="w" x="16143126.101003256" y="-4567282.359673435" /></plan></person><person id="2620601750"><plan selected="yes"><activity end_time="00:00:00" type="h" x="16140390.178414823" y="-4564246.929602419" /><leg mode="car" /><activity end_time="01:00:00" type="w" x="16143126.101003256" y="-4567282.359673435" /></plan></person><person id="5680743309"><plan selected="yes"><activity end_time="00:00:00" type="h" x="16141604.042811861" y="-4564263.740797382" /><leg mode="car" /><activity end_time="01:00:00" type="w" x="16143126.101003256" y="-4567282.359673435" /></plan></person><person id="1807816183"><plan selected="yes"><activity end_time="00:00:00" type="h" x="16140392.35191681" y="-4564168.657521765" /><leg mode="car" /><activity end_time="01:00:00" type="w" x="16143126.101003256" y="-4567282.359673435" /></plan></person><person id="9092301143"><plan selected="yes"><activity end_time="00:00:00" type="h" x="16140856.127313808" y="-4564244.7264777925" /><leg mode="car" /><activity end_time="01:00:00" type="w" x="16143126.101003256" y="-4567282.359673435" /></plan></person><person id="8109311796"><plan selected="yes"><activity end_time="00:00:00" type="h" x="16140532.229351763" y="-4564794.148402973" /><leg mode="car" /><activity end_time="01:00:00" type="w" x="16143126.101003256" y="-4567282.359673435" /></plan></person><person id="9744420795"><plan selected="yes"><activity end_time="00:00:00" type="h" x="16141337.541787935" y="-4564827.030014412" /><leg mode="car" /><activity end_time="01:00:00" type="w" x="16143126.101003256" y="-4567282.359673435" /></plan></person><person id="9426269316"><plan selected="yes"><activity end_time="00:00:00" type="h" x="16141146.298903886" y="-4564322.3545873985" /><leg mode="car" /><activity end_time="01:00:00" type="w" x="16143126.101003256" y="-4567282.359673435" /></plan></person><person id="8005608125"><plan selected="yes"><activity end_time="00:00:00" type="h" x="16141259.684383925" y="-4564163.874914419" /><leg mode="car" /><activity end_time="01:00:00" type="w" x="16143126.101003256" y="-4567282.359673435" /></plan></person><person id="9169085556"><plan selected="yes"><activity end_time="00:00:00" type="h" x="16141146.371789383" y="-4564300.180679741" /><leg mode="car" /><activity end_time="01:00:00" type="w" x="16143126.101003256" y="-4567282.359673435" /></plan></person><person id="9742545463"><plan selected="yes"><activity end_time="00:00:00" type="h" x="16141567.08107163" y="-4564833.549911226" /><leg mode="car" /><activity end_time="01:00:00" type="w" x="16143126.101003256" y="-4567282.359673435" /></plan></person><person id="3613991465"><plan selected="yes"><activity end_time="00:00:00" type="h" x="16141571.011699842" y="-4565109.304801312" /><leg mode="car" /><activity end_time="01:00:00" type="w" x="16143126.101003256" y="-4567282.359673435" /></plan></person><person id="4294216719"><plan selected="yes"><activity end_time="00:00:00" type="h" x="16140314.836960157" y="-4565186.193883022" /><leg mode="car" /><activity end_time="01:00:00" type="w" x="16143126.101003256" y="-4567282.359673435" /></plan></person><person id="2616985891"><plan selected="yes"><activity end_time="00:00:00" type="h" x="16140387.579073297" y="-4564237.85188749" /><leg mode="car" /><activity end_time="01:00:00" type="w" x="16143126.101003256" y="-4567282.359673435" /></plan></person><person id="9448943654"><plan selected="yes"><activity end_time="00:00:00" type="h" x="16140739.32112497" y="-4564493.987626959" /><leg mode="car" /><activity end_time="01:00:00" type="w" x="16143126.101003256" y="-4567282.359673435" /></plan></person><person id="5318229384"><plan selected="yes"><activity end_time="00:00:00" type="h" x="16141237.104040608" y="-4564835.589213816" /><leg mode="car" /><activity end_time="01:00:00" type="w" x="16143126.101003256" y="-4567282.359673435" /></plan></person><person id="6279495756"><plan selected="yes"><activity end_time="00:00:00" type="h" x="16140964.377735008" y="-4565093.748582979" /><leg mode="car" /><activity end_time="01:00:00" type="w" x="16143126.101003256" y="-4567282.359673435" /></plan></person><person id="6690067657"><plan selected="yes"><activity end_time="00:00:00" type="h" x="16140365.37795687" y="-4564472.2525191335" /><leg mode="car" /><activity end_time="01:00:00" type="w" x="16143126.101003256" y="-4567282.359673435" /></plan></person><person id="6191023969"><plan selected="yes"><activity end_time="00:00:00" type="h" x="16140397.63761506" y="-4565068.736738887" /><leg mode="car" /><activity end_time="01:00:00" type="w" x="16143126.101003256" y="-4567282.359673435" /></plan></person><person id="2450376265"><plan selected="yes"><activity end_time="00:00:00" type="h" x="16140793.082628934" y="-4564775.57297276" /><leg mode="car" /><activity end_time="01:00:00" type="w" x="16143126.101003256" y="-4567282.359673435" /></plan></person><person id="1261240327"><plan selected="yes"><activity end_time="00:00:00" type="h" x="16141453.630756436" y="-4564383.491975601" /><leg mode="car" /><activity end_time="01:00:00" type="w" x="16143126.101003256" y="-4567282.359673435" /></plan></person><person id="8693428567"><plan selected="yes"><activity end_time="00:00:00" type="h" x="16140257.631156959" y="-4564799.4341171365" /><leg mode="car" /><activity end_time="01:00:00" type="w" x="16143126.101003256" y="-4567282.359673435" /></plan></person><person id="8346067684"><plan selected="yes"><activity end_time="00:00:00" type="h" x="16141299.125459054" y="-4564917.764565466" /><leg mode="car" /><activity end_time="01:00:00" type="w" x="16143126.101003256" y="-4567282.359673435" /></plan></person><person id="6951142804"><plan selected="yes"><activity end_time="00:00:00" type="h" x="16141202.363745749" y="-4564233.703095727" /><leg mode="car" /><activity end_time="01:00:00" type="w" x="16143126.101003256" y="-4567282.359673435" /></plan></person><person id="7659595996"><plan selected="yes"><activity end_time="00:00:00" type="h" x="16140906.748519413" y="-4564746.384598417" /><leg mode="car" /><activity end_time="01:00:00" type="w" x="16143126.101003256" y="-4567282.359673435" /></plan></person><person id="4462843473"><plan selected="yes"><activity end_time="00:00:00" type="h" x="16141614.976979516" y="-4564555.869754793" /><leg mode="car" /><activity end_time="01:00:00" type="w" x="16143126.101003256" y="-4567282.359673435" /></plan></person><person id="2460789687"><plan selected="yes"><activity end_time="00:00:00" type="h" x="16140874.27257756" y="-4565113.950948204" /><leg mode="car" /><activity end_time="01:00:00" type="w" x="16143126.101003256" y="-4567282.359673435" /></plan></person><person id="3115053959"><plan selected="yes"><activity end_time="00:00:00" type="h" x="16141061.49636512" y="-4565147.86806359" /><leg mode="car" /><activity end_time="01:00:00" type="w" x="16143126.101003256" y="-4567282.359673435" /></plan></person><person id="8303449890"><plan selected="yes"><activity end_time="00:00:00" type="h" x="16141557.888329612" y="-4564867.041990169" /><leg mode="car" /><activity end_time="01:00:00" type="w" x="16143126.101003256" y="-4567282.359673435" /></plan></person><person id="8480175160"><plan selected="yes"><activity end_time="00:00:00" type="h" x="16141585.257113708" y="-4564528.660269703" /><leg mode="car" /><activity end_time="01:00:00" type="w" x="16143126.101003256" y="-4567282.359673435" /></plan></person><person id="2166291869"><plan selected="yes"><activity end_time="00:00:00" type="h" x="16140778.12861502" y="-4564280.037648915" /><leg mode="car" /><activity end_time="01:00:00" type="w" x="16143126.101003256" y="-4567282.359673435" /></plan></person><person id="6106823727"><plan selected="yes"><activity end_time="00:00:00" type="h" x="16140464.094927324" y="-4564942.6762322" /><leg mode="car" /><activity end_time="01:00:00" type="w" x="16143126.101003256" y="-4567282.359673435" /></plan></person><person id="7235755847"><plan selected="yes"><activity end_time="00:00:00" type="h" x="16140552.08760188" y="-4564340.72702492" /><leg mode="car" /><activity end_time="01:00:00" type="w" x="16143126.101003256" y="-4567282.359673435" /></plan></person><person id="2712255563"><plan selected="yes"><activity end_time="00:00:00" type="h" x="16140906.220901268" y="-4565094.999497145" /><leg mode="car" /><activity end_time="01:00:00" type="w" x="16143126.101003256" y="-4567282.359673435" /></plan></person><person id="1132396624"><plan selected="yes"><activity end_time="00:00:00" type="h" x="16140804.100681093" y="-4565077.333336672" /><leg mode="car" /><activity end_time="01:00:00" type="w" x="16143126.101003256" y="-4567282.359673435" /></plan></person><person id="2143715098"><plan selected="yes"><activity end_time="00:00:00" type="h" x="16141418.608177222" y="-4565165.7154200105" /><leg mode="car" /><activity end_time="01:00:00" type="w" x="16143126.101003256" y="-4567282.359673435" /></plan></person><person id="2467700921"><plan selected="yes"><activity end_time="00:00:00" type="h" x="16141311.245832296" y="-4564661.539298884" /><leg mode="car" /><activity end_time="01:00:00" type="w" x="16143126.101003256" y="-4567282.359673435" /></plan></person><person id="3148611859"><plan selected="yes"><activity end_time="00:00:00" type="h" x="16141337.533709457" y="-4564578.5620945245" /><leg mode="car" /><activity end_time="01:00:00" type="w" x="16143126.101003256" y="-4567282.359673435" /></plan></person><person id="5738404892"><plan selected="yes"><activity end_time="00:00:00" type="h" x="16140425.829330271" y="-4564570.700790689" /><leg mode="car" /><activity end_time="01:00:00" type="w" x="16143126.101003256" y="-4567282.359673435" /></plan></person><person id="5848994990"><plan selected="yes"><activity end_time="00:00:00" type="h" x="16141577.212031564" y="-4564758.124212423" /><leg mode="car" /><activity end_time="01:00:00" type="w" x="16143126.101003256" y="-4567282.359673435" /></plan></person><person id="2435546093"><plan selected="yes"><activity end_time="00:00:00" type="h" x="16140273.842994109" y="-4564761.7981858775" /><leg mode="car" /><activity end_time="01:00:00" type="w" x="16143126.101003256" y="-4567282.359673435" /></plan></person><person id="3500492753"><plan selected="yes"><activity end_time="00:00:00" type="h" x="16140405.625891887" y="-4564237.637387443" /><leg mode="car" /><activity end_time="01:00:00" type="w" x="16143126.101003256" y="-4567282.359673435" /></plan></person><person id="4281126664"><plan selected="yes"><activity end_time="00:00:00" type="h" x="16140949.471395737" y="-4564846.302118556" /><leg mode="car" /><activity end_time="01:00:00" type="w" x="16143126.101003256" y="-4567282.359673435" /></plan></person><person id="2624287348"><plan selected="yes"><activity end_time="00:00:00" type="h" x="16140709.546714265" y="-4564869.343573671" /><leg mode="car" /><activity end_time="01:00:00" type="w" x="16143126.101003256" y="-4567282.359673435" /></plan></person><person id="7888040532"><plan selected="yes"><activity end_time="00:00:00" type="h" x="16141196.953268196" y="-4564999.960745933" /><leg mode="car" /><activity end_time="01:00:00" type="w" x="16143126.101003256" y="-4567282.359673435" /></plan></person><person id="5724749195"><plan selected="yes"><activity end_time="00:00:00" type="h" x="16140857.362053132" y="-4564693.47383677" /><leg mode="car" /><activity end_time="01:00:00" type="w" x="16143126.101003256" y="-4567282.359673435" /></plan></person><person id="9613954994"><plan selected="yes"><activity end_time="00:00:00" type="h" x="16141158.492888995" y="-4564344.653116672" /><leg mode="car" /><activity end_time="01:00:00" type="w" x="16143126.101003256" y="-4567282.359673435" /></plan></person><person id="7670920474"><plan selected="yes"><activity end_time="00:00:00" type="h" x="16140589.659267329" y="-4565084.458966346" /><leg mode="car" /><activity end_time="01:00:00" type="w" x="16143126.101003256" y="-4567282.359673435" /></plan></person><person id="5424266901"><plan selected="yes"><activity end_time="00:00:00" type="h" x="16140256.53586099" y="-4564830.4404336605" /><leg mode="car" /><activity end_time="01:00:00" type="w" x="16143126.101003256" y="-4567282.359673435" /></plan></person><person id="3628904173"><plan selected="yes"><activity end_time="00:00:00" type="h" x="16141460.728501733" y="-4564392.44191741" /><leg mode="car" /><activity end_time="01:00:00" type="w" x="16143126.101003256" y="-4567282.359673435" /></plan></person><person id="9056808611"><plan selected="yes"><activity end_time="00:00:00" type="h" x="16140895.870906962" y="-4564405.027570177" /><leg mode="car" /><activity end_time="01:00:00" type="w" x="16143126.101003256" y="-4567282.359673435" /></plan></person><person id="1903617571"><plan selected="yes"><activity end_time="00:00:00" type="h" x="16140766.551570503" y="-4564990.010071797" /><leg mode="car" /><activity end_time="01:00:00" type="w" x="16143126.101003256" y="-4567282.359673435" /></plan></person><person id="2763302421"><plan selected="