<?xml version="1.0" encoding="utf-8"?>
<!DOCTYPE population SYSTEM "http://www.matsim.org/files/dtd/population_v6.dtd">
<population><person id="8476501007"><plan selected="yes"><activity end_time="00:00:00" type="h" x="16141142.723153047" y="-4564545.821048703" /><leg mode="car" /><activity end_time="01:00:00" type="w" x="16143399.60172822" y="-4566876.137122416" /></plan></person><person id="3789130329"><plan selected="yes"><activity end_time="00:00:00" type="h" x="16141581.47705605" y="-4564857.0988189215" /><leg mode="car" /><activity end_time="01:00:00" type="w" x="16143376.125298204" y="-4567352.678263572" /></plan></person><person id="6180192730"><plan selected="yes"><activity end_time="00:00:00" type="h" x="16140997.000998816" y="-4564842.189009138" /><leg mode="car" /><activity end_time="01:00:00" type="w" x="16143336.17425036" y="-4567194.919240028" /></plan></person><person id="7341763687"><plan selected="yes"><activity end_time="00:00:00" type="h" x="16140256.895931503" y="-4564869.802183672" /><leg mode="car" /><activity end_time="01:00:00" type="w" x="16143502.536443347" y="-4566647.636978318" /></plan></person><person id="7549401863"><plan selected="yes"><activity end_time="00:00:00" type="h" x="16141100.657822965" y="-4564852.566973609" /><leg mode="car" /><activity end_time="01:00:00" type="w" x="16143426.629560856" y="-4566594.477631991" /></plan></person><person id="2633186123"><plan selected="yes"><activity end_time="00:00:00" type="h" x="16140203.177244961" y="-4565037.835002248" /><leg mode="car" /><activity end_time="01:00:00" type="w" x="16143267.118542718" y="-4567130.672995654" /></plan></person><person id="5334134073"><plan selected="yes"><activity end_time="00:00:00" type="h" x="16141292.61948015" y="-4565160.1927909115" /><leg mode="car" /><activity end_time="01:00:00" type="w" x="16143597.588486563" y="-4567309.993594675" /></plan></person><person id="5887139068"><plan selected="yes"><activity end_time="00:00:00" type="h" x="16140646.265760671" y="-4565188.11986862" /><leg mode="car" /><activity end_time="01:00:00" type="w" x="16143616.999305652" y="-4566831.463909429" /></plan></person><person id="8225827735"><plan selected="yes"><activity end_time="00:00:00" type="h" x="16140811.11353623" y="-4564371.1102610165" /><leg mode="car" /><activity end_time="01:00:00" type="w" x="16143849.950548347" y="-4566789.229401929" /></plan></person><person id="4552630099"><plan selected="yes"><activity end_time="00:00:00" type="h" x="16140880.06909146" y="-4565193.952452544" /><leg mode="car" /><activity end_time="01:00:00" type="w" x="16143613.327160727" y="-4567123.109787315" /></plan></person><person id="8033112722"><plan selected="yes"><activity end_time="00:00:00" type="h" x="16140794.155331213" y="-4564171.678588848" /><leg mode="car" /><activity end_time="01:00:00" type="w" x="16143728.124470605" y="-4566705.311551247" /></plan></person><person id="9480250802"><plan selected="yes"><activity end_time="00:00:00" type="h" x="16140946.674337046" y="-4564557.529379737" /><leg mode="car" /><activity end_time="01:00:00" type="w" x="16143657.24931677" y="-4567214.59287383" /></plan></person><person id="6679584569"><plan selected="yes"><activity end_time="00:00:00" type="h" x="16140331.766545529" y="-4564471.981112426" /><leg mode="car" /><activity end_time="01:00:00" type="w" x="16143843.154890003" y="-4566915.299467172" /></plan></person><person id="5713923499"><plan selected="yes"><activity end_time="00:00:00" type="h" x="16141538.93187363" y="-4564281.065643221" /><leg mode="car" /><activity end_time="01:00:00" type="w" x="16143475.42007039" y="-4566555.233652743" /></plan></person><person id="2576124788"><plan selected="yes"><activity end_time="00:00:00" type="h" x="16141200.379004123" y="-4564724.053118067" /><leg mode="car" /><activity end_time="01:00:00" type="w" x="16143780.378203586" y="-4567299.144777901" /></plan></person><person id="7577825120"><plan selected="yes"><activity end_time="00:00:00" type="h" x="16141216.870056363" y="-4564627.702135325" /><leg mode="car" /><activity end_time="01:00:00" type="w" x="16143421.482587293" y="-4566855.788227365" /></plan></person><person id="1826350105"><plan selected="yes"><activity end_time="00:00:00" type="h" x="16140724.011290759" y="-4565155.711958878" /><leg mode="car" /><activity end_time="01:00:00" type="w" x="16143725.35013168" y="-4567297.362098231" /></plan></person><person id="7377714093"><plan selected="yes"><activity end_time="00:00:00" type="h" x="16140887.640480855" y="-4564859.28951581" /><leg mode="car" /><activity end_time="01:00:00" type="w" x="16143417.985085426" y="-4566708.637835279" /></plan></person><person id="3788671096"><plan selected="yes"><activity end_time="00:00:00" type="h" x="16140218.27719835" y="-4564263.7787954025" /><leg mode="car" /><activity end_time="01:00:00" type="w" x="16143542.705556637" y="-4567370.648765788" /></plan></person><person id="4807692573"><plan selected="yes"><activity end_time="00:00:00" type="h" x="16141436.956334893" y="-4564261.263103288" /><leg mode="car" /><activity end_time="01:00:00" type="w" x="16143375.731040401" y="-4566741.926558184" /></plan></person><person id="1576756006"><plan selected="yes"><activity end_time="00:00:00" type="h" x="16140632.412623523" y="-4564970.199767478" /><leg mode="car" /><activity end_time="01:00:00" type="w" x="16143819.84628414" y="-4567239.44197019" /></plan></person><person id="3326693521"><plan selected="yes"><activity end_time="00:00:00" type="h" x="16140987.613110028" y="-4564343.053054595" /><leg mode="car" /><activity end_time="01:00:00" type="w" x="16143365.291625584" y="-4567267.94641628" /></plan></person><person id="5487161918"><plan selected="yes"><activity end_time="00:00:00" type="h" x="16141044.21587009" y="-4564472.399149254" /><leg mode="car" /><activity end_time="01:00:00" type="w" x="16143377.983820416" y="-4566879.813847924" /></plan></person><person id="4000345512"><plan selected="yes"><activity end_time="00:00:00" type="h" x="16141234.668011691" y="-4565176.778594274" /><leg mode="car" /><activity end_time="01:00:00" type="w" x="16143844.577368757" y="-4567062.4227958005" /></plan></person><person id="3819042147"><plan selected="yes"><activity end_time="00:00:00" type="h" x="16141257.9768956" y="-4564907.883832947" /><leg mode="car" /><activity end_time="01:00:00" type="w" x="16143496.180349251" y="-4566577.709452656" /></plan></person><person id="9771043292"><plan selected="yes"><activity end_time="00:00:00" type="h" x="16140348.447738495" y="-4564934.608833625" /><leg mode="car" /><activity end_time="01:00:00" type="w" x="16143695.68257975" y="-4566689.326805982" /></plan></person><person id="8518827973"><plan selected="yes"><activity end_time="00:00:00" type="h" x="16141000.219487451" y="-4564499.467844206" /><leg mode="car" /><activity end_time="01:00:00" type="w" x="16143243.60308367" y="-4566823.443656996" /></plan></person><person id="3117691840"><plan selected="yes"><activity end_time="00:00:00" type="h" x="16140340.834508702" y="-4564423.674781779" /><leg mode="car" /><activity end_time="01:00:00" type="w" x="16143759.433283217" y="-4566930.348545721" /></plan></person><person id="8165086699"><plan selected="yes"><activity end_time="00:00:00" type="h" x="16141325.204660162" y="-4565031.471195603" /><leg mode="car" /><activity end_time="01:00:00" type="w" x="16143771.833172226" y="-4566821.850285873" /></plan></person><person id="4359210344"><plan selected="yes"><activity end_time="00:00:00" type="h" x="16141425.29797187" y="-4564575.349026232" /><leg mode="car" /><activity end_time="01:00:00" type="w" x="16143778.813453283" y="-4566709.815572898" /></plan></person><person id="7770430965"><plan selected="yes"><activity end_time="00:00:00" type="h" x="16141472.131641861" y="-4565170.910770418" /><leg mode="car" /><activity end_time="01:00:00" type="w" x="16143943.816614462" y="-4567168.000962821" /></plan></person><person id="7071087054"><plan selected="yes"><activity end_time="00:00:00" type="h" x="16141360.742562097" y="-4564736.097809412" /><leg mode="car" /><activity end_time="01:00:00" type="w" x="16143985.600016437" y="-4567116.098037208" /></plan></person><person id="7764799423"><plan selected="yes"><activity end_time="00:00:00" type="h" x="16141374.125325907" y="-4564793.834357747" /><leg mode="car" /><activity end_time="01:00:00" type="w" x="16143627.524979984" y="-4566780.05365527" /></plan></person><person id="7452625718"><plan selected="yes"><activity end_time="00:00:00" type="h" x="16140883.36652748" y="-4564616.289269492" /><leg mode="car" /><activity end_time="01:00:00" type="w" x="16143512.896432944" y="-4567024.942510528" /></plan></person><person id="1935134847"><plan selected="yes"><activity end_time="00:00:00" type="h" x="16141066.757261269" y="-4564419.357532331" /><leg mode="car" /><activity end_time="01:00:00" type="w" x="16143332.424681237" y="-4566910.427246552" /></plan></person><person id="2691582495"><plan selected="yes"><activity end_time="00:00:00" type="h" x="16140935.402322205" y="-4565068.028038653" /><leg mode="car" /><activity end_time="01:00:00" type="w" x="16143961.467971608" y="-4567260.749955238" /></plan></person><person id="8578160150"><plan selected="yes"><activity end_time="00:00:00" type="h" x="16141204.896878438" y="-4564503.2764988905" /><leg mode="car" /><activity end_time="01:00:00" type="w" x="16143307.20649958" y="-4567021.696835178" /></plan></person><person id="9566299140"><plan selected="yes"><activity end_time="00:00:00" type="h" x="16140199.084599538" y="-4564831.618606688" /><leg mode="car" /><activity end_time="01:00:00" type="w" x="16143918.722329957" y="-4566639.500237474" /></plan></person><person id="4618623366"><plan selected="yes"><activity end_time="00:00:00" type="h" x="16141036.289175514" y="-4564647.392960338" /><leg mode="car" /><activity end_time="01:00:00" type="w" x="16143390.370957099" y="-4566819.148749849" /></plan></person><person id="9373174684"><plan selected="yes"><activity end_time="00:00:00" type="h" x="16141616.1300159" y="-4564196.148905193" /><leg mode="car" /><activity end_time="01:00:00" type="w" x="16143850.581823858" y="-4566713.447431735" /></plan></person><person id="7897870459"><plan selected="yes"><activity end_time="00:00:00" type="h" x="16141192.13899954" y="-4564638.186154102" /><leg mode="car" /><activity end_time="01:00:00" type="w" x="16143709.100874774" y="-4566533.192924635" /></plan></person><person id="7090440223"><plan selected="yes"><activity end_time="00:00:00" type="h" x="16141291.890920091" y="-4564399.721185306" /><leg mode="car" /><activity end_time="01:00:00" type="w" x="16143854.278569302" y="-4566704.205878919" /></plan></person><person id="5978901101"><plan selected="yes"><activity end_time="00:00:00" type="h" x="16140704.971306784" y="-4564390.12891246" /><leg mode="car" /><activity end_time="01:00:00" type="w" x="16143737.659989959" y="-4567054.655931491" /></plan></person><person id="2743567701"><plan selected="yes"><activity end_time="00:00:00" type="h" x="16140185.993996732" y="-4564230.057644742" /><leg mode="car" /><activity end_time="01:00:00" type="w" x="16143757.538086705" y="-4566652.780080502" /></plan></person><person id="2528148730"><plan selected="yes"><activity end_time="00:00:00" type="h" x="16140620.685034998" y="-4564430.151871225" /><leg mode="car" /><activity end_time="01:00:00" type="w" x="16143880.825980894" y="-4566540.255947025" /></plan></person><person id="8559603341"><plan selected="yes"><activity end_time="00:00:00" type="h" x="16140352.30072917" y="-4564181.468262312" /><leg mode="car" /><activity end_time="01:00:00" type="w" x="16143993.583878322" y="-4567274.337736469" /></plan></person><person id="4841405076"><plan selected="yes"><activity end_time="00:00:00" type="h" x="16141593.240815224" y="-4564550.973972477" /><leg mode="car" /><activity end_time="01:00:00" type="w" x="16143359.435608106" y="-4567233.251653078" /></plan></person><person id="3472793897"><plan selected="yes"><activity end_time="00:00:00" type="h" x="16140653.736478422" y="-4564726.806284717" /><leg mode="car" /><activity end_time="01:00:00" type="w" x="16143829.01232746" y="-4566563.251736427" /></plan></person><person id="3862138822"><plan selected="yes"><activity end_time="00:00:00" type="h" x="16140717.293203097" y="-4564592.7786888825" /><leg mode="car" /><activity end_time="01:00:00" type="w" x="16143867.258750703" y="-4567190.422293215" /></plan></person><person id="9025609119"><plan selected="yes"><activity end_time="00:00:00" type="h" x="16140612.269038897" y="-4564892.213768778" /><leg mode="car" /><activity end_time="01:00:00" type="w" x="16143279.26829275" y="-4566619.71942487" /></plan></person><person id="9518512196"><plan selected="yes"><activity end_time="00:00:00" type="h" x="16140206.097975988" y="-4564336.275239867" /><leg mode="car" /><activity end_time="01:00:00" type="w" x="16143405.787961846" y="-4566776.301217842" /></plan></person><person id="6528524573"><plan selected="yes"><activity end_time="00:00:00" type="h" x="16140340.824493067" y="-4564347.15577148" /><leg mode="car" /><activity end_time="01:00:00" type="w" x="16143424.244009664" y="-4566954.727003055" /></plan></person><person id="7915464377"><plan selected="yes"><activity end_time="00:00:00" type="h" x="16141491.037041444" y="-4564978.173981746" /><leg mode="car" /><activity end_time="01:00:00" type="w" x="16144008.910054319" y="-4567328.286521404" /></plan></person><person id="7728452062"><plan selected="yes"><activity end_time="00:00:00" type="h" x="16140417.486584239" y="-4564540.293387939" /><leg mode="car" /><activity end_time="01:00:00" type="w" x="16143261.953178486" y="-4566767.926504533" /></plan></person><person id="7765033135"><plan selected="yes"><activity end_time="00:00:00" type="h" x="16140792.43310638" y="-4564261.836456789" /><leg mode="car" /><activity end_time="01:00:00" type="w" x="16143640.88092599" y="-4566716.927505264" /></plan></person><person id="6792296406"><plan selected="yes"><activity end_time="00:00:00" type="h" x="16140909.272665136" y="-4564698.777411908" /><leg mode="car" /><activity end_time="01:00:00" type="w" x="16143491.97348704" y="-4566626.731478762" /></plan></person><person id="9289453017"><plan selected="yes"><activity end_time="00:00:00" type="h" x="16140520.644835223" y="-4565050.810461776" /><leg mode="car" /><activity end_time="01:00:00" type="w" x="16143612.625403794" y="-4566878.145555209" /></plan></person><person id="8638389796"><plan selected="yes"><activity end_time="00:00:00" type="h" x="16140983.364138082" y="-4564857.011588152" /><leg mode="car" /><activity end_time="01:00:00" type="w" x="16143240.632693894" y="-4567168.767641888" /></plan></person><person id="5420951492"><plan selected="yes"><activity end_time="00:00:00" type="h" x="16140695.887232572" y="-4564412.900391832" /><leg mode="car" /><activity end_time="01:00:00" type="w" x="16143336.329594001" y="-4566683.998065484" /></plan></person><person id="1599716691"><plan selected="yes"><activity end_time="00:00:00" type="h" x="16140938.22779043" y="-4564432.029856646" /><leg mode="car" /><activity end_time="01:00:00" type="w" x="16143970.753783805" y="-4567370.335961926" /></plan></person><person id="9807147095"><plan selected="yes"><activity end_time="00:00:00" type="h" x="16140218.681507295" y="-4564935.410036153" /><leg mode="car" /><activity end_time="01:00:00" type="w" x="16143751.234941076" y="-4566962.667213298" /></plan></person><person id="7925149663"><plan selected="yes"><activity end_time="00:00:00" type="h" x="16141348.891256832" y="-4564339.229400754" /><leg mode="car" /><activity end_time="01:00:00" type="w" x="16143433.18847734" y="-4567002.112882468" /></plan></person><person id="1291320068"><plan selected="yes"><activity end_time="00:00:00" type="h" x="16140276.265262796" y="-4564578.04205094" /><leg mode="car" /><activity end_time="01:00:00" type="w" x="16143420.20666063" y="-4566762.874917037" /></plan></person><person id="8254671125"><plan selected="yes"><activity end_time="00:00:00" type="h" x="16141492.235847786" y="-4564316.4182101665" /><leg mode="car" /><activity end_time="01:00:00" type="w" x="16143710.347462777" y="-4566890.8943984015" /></plan></person><person id="2487457794"><plan selected="yes"><activity end_time="00:00:00" type="h" x="16140297.514362507" y="-4564402.623563569" /><leg mode="car" /><activity end_time="01:00:00" type="w" x="16143810.736804534" y="-4566554.769530473" /></plan></person><person id="3677738754"><plan selected="yes"><activity end_time="00:00:00" type="h" x="16141422.104686445" y="-4565138.176383487" /><leg mode="car" /><activity end_time="01:00:00" type="w" x="16143249.054227296" y="-4567143.388372555" /></plan></person><person id="7833939278"><plan selected="yes"><activity end_time="00:00:00" type="h" x="16140857.12412432" y="-4564342.102241012" /><leg mode="car" /><activity end_time="01:00:00" type="w" x="16143296.574087122" y="-4567080.170872228" /></plan></person><person id="2116721025"><plan selected="yes"><activity end_time="00:00:00" type="h" x="16140188.649571674" y="-4564838.881715099" /><leg mode="car" /><activity end_time="01:00:00" type="w" x="16143697.724703334" y="-4567066.956307599" /></plan></person><person id="9242993380"><plan selected="yes"><activity end_time="00:00:00" type="h" x="16140907.175783556" y="-4564417.938851079" /><leg mode="car" /><activity end_time="01:00:00" type="w" x="16143649.665819125" y="-4567324.145698156" /></plan></person><person id="4154002755"><plan selected="yes"><activity end_time="00:00:00" type="h" x="16140767.434782902" y="-4564846.771174911" /><leg mode="car" /><activity end_time="01:00:00" type="w" x="16143476.736932652" y="-4566564.897235385" /></plan></person><person id="1711154092"><plan selected="yes"><activity end_time="00:00:00" type="h" x="16140477.211104613" y="-4564604.537993458" /><leg mode="car" /><activity end_time="01:00:00" type="w" x="16143500.522570489" y="-4567191.939374256" /></plan></person><person id="4822164847"><plan selected="yes"><activity end_time="00:00:00" type="h" x="16140196.350188935" y="-4564233.61164777" /><leg mode="car" /><activity end_time="01:00:00" type="w" x="16143787.014338313" y="-4566897.374576372" /></plan></person><person id="7359683523"><plan selected="yes"><activity end_time="00:00:00" type="h" x="16140203.681409828" y="-4564340.62832721" /><leg mode="car" /><activity end_time="01:00:00" type="w" x="16143251.51184902" y="-4566617.350524782" /></plan></person><person id="7314233140"><plan selected="yes"><activity end_time="00:00:00" type="h" x="16141277.378253037" y="-4564946.531276034" /><leg mode="car" /><activity end_time="01:00:00" type="w" x="16143580.42350338" y="-4566626.341726297" /></plan></person><person id="6127425514"><plan selected="yes"><activity end_time="00:00:00" type="h" x="16140763.768286325" y="-4564988.730801611" /><leg mode="car" /><activity end_time="01:00:00" type="w" x="16143671.180109985" y="-4567275.736815428" /></plan></person><person id="6126270644"><plan selected="yes"><activity end_time="00:00:00" type="h" x="16140257.827643739" y="-4564684.045311656" /><leg mode="car" /><activity end_time="01:00:00" type="w" x="16143635.66217337" y="-4566894.847777752" /></plan></person><person id="3394355914"><plan selected="yes"><activity end_time="00:00:00" type="h" x="16141223.019024707" y="-4565181.251259878" /><leg mode="car" /><activity end_time="01:00:00" type="w" x="16143772.426350562" y="-4566640.510020081" /></plan></person><person id="5849409849"><plan selected="yes"><activity end_time="00:00:00" type="h" x="16140205.534113871" y="-4564731.764031803" /><leg mode="car" /><activity end_time="01:00:00" type="w" x="16143903.53635224" y="-4567139.128798267" /></plan></person><person id="7739772937"><plan selected="yes"><activity end_time="00:00:00" type="h" x="16140666.934643658" y="-4564630.575493012" /><leg mode="car" /><activity end_time="01:00:00" type="w" x="16143522.650578465" y="-4566771.901640117" /></plan></person><person id="2472249687"><plan selected="yes"><activity end_time="00:00:00" type="h" x="16140239.886961758" y="-4564209.943793592" /><leg mode="car" /><activity end_time="01:00:00" type="w" x="16143360.431965483" y="-4566982.035657757" /></plan></person><person id="3083657417"><plan selected="yes"><activity end_time="00:00:00" type="h" x="16140961.267528325" y="-4564798.610109775" /><leg mode="car" /><activity end_time="01:00:00" type="w" x="16143873.915246543" y="-4566623.580868091" /></plan></person><person id="4010534036"><plan selected="yes"><activity end_time="00:00:00" type="h" x="16141344.272400405" y="-4564554.664331795" /><leg mode="car" /><activity end_time="01:00:00" type="w" x="16143418.403662473" y="-4567189.580086194" /></plan></person><person id="8816484779"><plan selected="yes"><activity end_time="00:00:00" type="h" x="16140419.456599426" y="-4564848.792647129" /><leg mode="car" /><activity end_time="01:00:00" type="w" x="16143913.69681035" y="-4566708.9583358485" /></plan></person><person id="3110661675"><plan selected="yes"><activity end_time="00:00:00" type="h" x="16141269.448451146" y="-4564872.847467924" /><leg mode="car" /><activity end_time="01:00:00" type="w" x="16143870.783495285" y="-4566719.987463338" /></plan></person><person id="8105664898"><plan selected="yes"><activity end_time="00:00:00" type="h" x="16141420.574935544" y="-4564698.679056453" /><leg mode="car" /><activity end_time="01:00:00" type="w" x="16143282.257620562" y="-4567014.132666814" /></plan></person><person id="9497890875"><plan selected="yes"><activity end_time="00:00:00" type="h" x="16140879.018555157" y="-4565080.500413334" /><leg mode="car" /><activity end_time="01:00:00" type="w" x="16143222.511694822" y="-4566716.014027013" /></plan></person><person id="3624517385"><plan selected="yes"><activity end_time="00:00:00" type="h" x="16140259.013971265" y="-4564575.720656022" /><leg mode="car" /><activity end_time="01:00:00" type="w" x="16143335.253275897" y="-4567219.578130836" /></plan></person><person id="7017261730"><plan selected="yes"><activity end_time="00:00:00" type="h" x="16141497.753514275" y="-4564629.171113278" /><leg mode="car" /><activity end_time="01:00:00" type="w" x="16143535.325359888" y="-4567053.148861387" /></plan></person><person id="5689206880"><plan selected="yes"><activity end_time="00:00:00" type="h" x="16141241.29251607" y="-4564633.453152694" /><leg mode="car" /><activity end_time="01:00:00" type="w" x="16143931.524983872" y="-4567306.599202604" /></plan></person><person id="7274585734"><plan selected="yes"><activity end_time="00:00:00" type="h" x="16140804.36980675" y="-4564837.864474697" /><leg mode="car" /><activity end_time="01:00:00" type="w" x="16143615.261316761" y="-4567207.4726734655" /></plan></person><person id="8404465217"><plan selected="yes"><activity end_time="00:00:00" type="h" x="16141290.966538398" y="-4564340.022811105" /><leg mode="car" /><activity end_time="01:00:00" type="w" x="16143226.601944987" y="-4567033.737036644" /></plan></person><person id="3610169769"><plan selected="yes"><activity end_time="00:00:00" type="h" x="16140275.125491465" y="-4564766.661939373" /><leg mode="car" /><activity end_time="01:00:00" type="w" x="16143456.347619755" y="-4567337.967116141" /></plan></person><person id="7420964366"><plan selected="yes"><activity end_time="00:00:00" type="h" x="16140629.109915424" y="-4564299.006413292" /><leg mode="car" /><activity end_time="01:00:00" type="w" x="16143752.831696177" y="-4567280.139007319" /></plan></person><person id="9857416517"><plan selected="yes"><activity end_time="00:00:00" type="h" x="16141056.731720652" y="-4564761.549815047" /><leg mode="car" /><activity end_time="01:00:00" type="w" x="16143441.832753874" y="-4566881.203229048" /></plan></person><person id="1019312697"><plan selected="yes"><activity end_time="00:00:00" type="h" x="16140201.910575638" y="-4564657.703321538" /><leg mode="car" /><activity end_time="01:00:00" type="w" x="16143250.842869764" y="-4567029.501777312" /></plan></person><person id="2806449250"><plan selected="yes"><activity end_time="00:00:00" type="h" x="16140822.94503053" y="-4564677.797485464" /><leg mode="car" /><activity end_time="01:00:00" type="w" x="16143906.820191855" y="-4567060.437772006" /></plan></person><person id="1762777008"><plan selected="yes"><activity end_time="00:00:00" type="h" x="16140891.918829773" y="-4564183.414760971" /><leg mode="car" /><activity end_time="01:00:00" type="w" x="16143470.75990279" y="-4567237.414317779" /></plan></person><person id="6715319160"><plan selected="yes"><activity end_time="00:00:00" type="h" x="16141188.537959523" y="-4564423.528629501" /><leg mode="car" /><activity end_time="01:00:00" type="w" x="16143396.524332946" y="-4567006.486246946" /></plan></person><person id="7484339667"><plan selected="yes"><activity end_time="00:00:00" type="h" x="16140953.237830607" y="-4564967.949750611" /><leg mode="car" /><activity end_time="01:00:00" type="w" x="16143824.836569378" y="-4566919.241049747" /></plan></person><person id="6014437546"><plan selected="yes"><activity end_time="00:00:00" type="h" x="16140692.510261962" y="-4565160.953257607" /><leg mode="car" /><activity end_time="01:00:00" type="w" x="16143362.638266759" y="-4566579.801959254" /></plan></person><person id="5995301308"><plan selected="yes"><activity end_time="00:00:00" type="h" x="16140234.733794883" y="-4564714.963967634" /><leg mode="car" /><activity end_time="01:00:00" type="w" x="16143485.090881068" y="-4566807.821026152" /></plan></person><person id="2745211601"><plan selected="yes"><activity end_time="00:00:00" type="h" x="16141249.523000186" y="-4565071.172476341" /><leg mode="car" /><activity end_time="01:00:00" type="w" x="16143491.231732862" y="-4566977.513316534" /></plan></person><person id="7503642150"><plan selected="yes"><activity end_time="00:00:00" type="h" x="16141612.624591427" y="-4564883.039056701" /><leg mode="car" /><activity end_time="01:00:00" type="w" x="16143538.186046468" y="-4567163.636822161" /></plan></person><person id="9669599062"><plan selected="yes"><activity end_time="00:00:00" type="h" x="16140430.70743461" y="-4564755.215645128" /><leg mode="car" /><activity end_time="01:00:00" type="w" x="16143918.433738705" y="-4566597.409332457" /></plan></person><person id="4774959273"><plan selected="yes"><activity end_time="00:00:00" type="h" x="16140933.955525663" y="-4564839.994768063" /><leg mode="car" /><activity end_time="01:00:00" type="w" x="16143551.316477807" y="-4566825.873741332" /></plan></person><person id="5017947026"><plan selected="yes"><activity end_time="00:00:00" type="h" x="16141528.491860978" y="-4564592.6408395665" /><leg mode="car" /><activity end_time="01:00:00" type="w" x="16144017.874321785" y="-4567064.058390313" /></plan></person><person id="4621643909"><plan selected="yes"><activity end_time="00:00:00" type="h" x="16141035.74674349" y="-4564190.95529482" /><leg mode="car" /><activity end_time="01:00:00" type="w" x="16143631.421496456" y="-4566639.530275336" /></plan></person><person id="4884234747"><plan selected="yes"><activity end_time="00:00:00" type="h" x="16140205.394131737" y="-4564329.96903478" /><leg mode="car" /><activity end_time="01:00:00" type="w" x="16143357.12265461" y="-4566956.964967039" /></plan></person><person id="6180245101"><plan selected="yes"><activity end_time="00:00:00" type="h" x="16141493.328593686" y="-4564738.720963038" /><leg mode="car" /><activity end_time="01:00:00" type="w" x="16143557.935517626" y="-4566985.310725099" /></plan></person><person id="4400925074"><plan selected="yes"><activity end_time="00:00:00" type="h" x="16140639.610636566" y="-4565181.129690678" /><leg mode="car" /><activity end_time="01:00:00" type="w" x="16143772.151213283" y="-4566851.394464163" /></plan></person><person id="7883932276"><plan selected="yes"><activity end_time="00:00:00" type="h" x="16141324.43838142" y="-4564541.167205356" /><leg mode="car" /><activity end_time="01:00:00" type="w" x="16143302.751495302" y="-4566649.68839628" /></plan></person><person id="5277724248"><plan selected="yes"><activity end_time="00:00:00" type="h" x="16141445.44211683" y="-4564242.041216329" /><leg mode="car" /><activity end_time="01:00:00" type="w" x="16143696.312516453" y="-4566832.967789328" /></plan></person><person id="1380246854"><plan selected="yes"><activity end_time="00:00:00" type="h" x="16140564.091774913" y="-4564994.647125438" /><leg mode="car" /><activity end_time="01:00:00" type="w" x="16143914.267156499" y="-4566764.683981115" /></plan></person><person id="3119016993"><plan selected="yes"><activity end_time="00:00:00" type="h" x="16141475.251702629" y="-4564316.822325466" /><leg mode="car" /><activity end_time="01:00:00" type="w" x="16143468.095300114" y="-4566553.356345434" /></plan></person><person id="1668241933"><plan selected="yes"><activity end_time="00:00:00" type="h" x="16140950.664332932" y="-4564266.2986666" /><leg mode="car" /><activity end_time="01:00:00" type="w" x="16143873.889584346" y="-4567086.173322676" /></plan></person><person id="3015325268"><plan selected="yes"><activity end_time="00:00:00" type="h" x="16140713.845356513" y="-4564528.753518663" /><leg mode="car" /><activity end_time="01:00:00" type="w" x="16143918.196809072" y="-4566758.974606201" /></plan></person><person id="9888069624"><plan selected="yes"><activity end_time="00:00:00" type="h" x="16141336.279843027" y="-4564772.911380368" /><leg mode="car" /><activity end_time="01:00:00" type="w" x="16143509.91294259" y="-4567120.553809988" /></plan></person><person id="3636905651"><plan selected="yes"><activity end_time="00:00:00" type="h" x="16141186.820308238" y="-4564477.427471517" /><leg mode="car" /><activity end_time="01:00:00" type="w" x="16143734.380084028" y="-4567193.686644688" /></plan></person><person id="4870605517"><plan selected="yes"><activity end_time="00