<?xml version="1.0" encoding="utf-8"?>

<networkChangeEvents xmlns="http://www.matsim.org/files/dtd" xmlns:xsi="http://www.w3.org/2001/XMLSchema-instance" xsi:schemaLocation="http://www.matsim.org/files/dtd http://www.matsim.org/files/dtd/networkChangeEvents.xsd"><networkChangeEvent startTime="01:00:01"><link refId="233079841_0" /><link refId="233079842_0" /><link refId="233079834_0" /><link refId="233079834_0_r" /><link refId="179220387_0_r" /><link refId="179220387_0" /><link refId="179220389_0_r" /><link refId="179220389_0" /><link refId="233079835_0" /><link refId="233079836_0" /><link refId="59254255_0_r" /><link refId="59254255_0" /><link refId="27727408_0" /><link refId="27727408_0_r" /><link refId="178601955_1" /><link refId="178601955_1_r" /><link refId="178601955_0" /><link refId="178601955_0_r" /><link refId="172874636_0" /><link refId="172874636_0_r" /><link refId="45733074_0" /><link refId="45733074_0_r" /><freespeed type="absolute" value="0.000001" /></networkChangeEvent><networkChangeEvent startTime="01:00:02"><link refId="105692644_5" /><link refId="105692644_5_r" /><link refId="105692644_6" /><link refId="105692644_6_r" /><link refId="173552946_0" /><link refId="173552946_0_r" /><link refId="173552946_1" /><link refId="173552946_1_r" /><link refId="173552946_2" /><link refId="173552946_2_r" /><link refId="173552946_3" /><link refId="173552946_3_r" /><link refId="173552946_4" /><link refId="173552946_4_r" /><link refId="204204073_2" /><link refId="204204073_2_r" /><link refId="241074533_0" /><link refId="241074533_0_r" /><link refId="241074533_1" /><link refId="241074533_1_r" /><link refId="241074533_2" /><link refId="241074533_2_r" /><link refId="241074533_3" /><link refId="241074533_3_r" /><link refId="27726997_0" /><link refId="27726997_0_r" /><link refId="27726997_1" /><link refId="27726997_1_r" /><link refId="27726997_2" /><link refId="27726997_2_r" /><link refId="27726997_3" /><link refId="27726997_3_r" /><link refId="27726997_4" /><link refId="27726997_4_r" /><link refId="27726997_5" /><link refId="27726997_5_r" /><link refId="27726999_0" /><link refId="27726999_0_r" /><link refId="27727001_0" /><link refId="27727001_0_r" /><link refId="27727001_1" /><link refId="27727001_1_r" /><link refId="45020050_0" /><link refId="45020050_0_r" /><link refId="45020053_0" /><link refId="45020053_0_r" /><link refId="46146479_0" /><link refId="46146479_0_r" /><link refId="46146905_0" /><link refId="46146905_0_r" /><link refId="46146906_0" /><link refId="46146906_0_r" /><link refId="49248205_2" /><link refId="49248205_2_r" /><link refId="59255526_0" /><link refId="59255526_0_r" /><link refId="27727080_0" /><link refId="27727081_0" /><link refId="27727081_0_r" /><link refId="30704888_0" /><link refId="30704888_0_r" /><link refId="30704888_1" /><link refId="30704888_1_r" /><link refId="59254259_1" /><link refId="59254259_1_r" /><link refId="59254259_2" /><link refId="59254259_2_r" /><freespeed type="absolute" value="0.000001" /></networkChangeEvent><networkChangeEvent startTime="01:00:03"><link refId="27726999_0" /><link refId="27726999_0_r" /><link refId="45730575_0" /><link refId="45730575_0_r" /><link refId="46146898_0" /><link refId="46146898_0_r" /><link refId="46146898_1" /><link refId="46146898_1_r" /><link refId="628937397_0" /><link refId="628937397_0_r" /><link refId="179220875_0" /><link refId="179220875_0_r" /><link refId="179220876_0" /><link refId="179220876_0_r" /><link refId="179220878_0" /><link refId="179220878_0_r" /><link refId="179220879_0" /><link refId="179220879_0_r" /><link refId="179220883_0" /><link refId="179220883_0_r" /><link refId="179220883_1" /><link refId="179220883_1_r" /><link refId="179220883_2" /><link refId="179220883_2_r" /><link refId="179220883_3" /><link refId="179220883_3_r" /><link refId="179220883_4" /><link refId="179220883_4_r" /><link refId="179220886_0" /><link refId="179220886_0_r" /><link refId="179220886_1" /><link refId="179220886_1_r" /><link refId="179220886_2" /><link refId="179220886_2_r" /><link refId="179220886_3" /><link refId="179220886_3_r" /><link refId="179220886_4" /><link refId="179220886_4_r" /><link refId="179221423_0" /><link refId="179221423_0_r" /><link refId="179221426_0" /><link refId="179221426_0_r" /><link refId="179221426_1" /><link refId="179221426_1_r" /><link refId="179221428_0" /><link refId="179221428_0_r" /><link refId="179221428_1" /><link refId="179221428_1_r" /><link refId="198936437_6" /><link refId="198936437_6_r" /><link refId="198936437_7" /><link refId="198936437_7_r" /><link refId="198936437_8" /><link refId="198936437_8_r" /><link refId="198936437_9" /><link refId="198936437_9_r" /><link refId="27726557_1" /><link refId="27726557_1_r" /><link refId="27726735_0" /><link refId="27726735_0_r" /><link refId="27726735_1" /><link refId="27726735_1_r" /><link refId="46010675_1" /><link refId="46010675_1_r" /><link refId="46010675_2" /><link refId="46010675_2_r" /><link refId="46028710_1" /><link refId="46028710_1_r" /><link refId="46028710_2" /><link refId="46028710_2_r" /><link refId="46146464_0" /><link refId="46146464_0_r" /><link refId="46146464_1" /><link refId="46146464_1_r" /><freespeed type="absolute" value="0.000001" /></networkChangeEvent></networkChangeEvents>