<?xml version="1.0" encoding="utf-8"?>
<!DOCTYPE transitSchedule SYSTEM "http://www.matsim.org/files/dtd/transitSchedule_v1.dtd">
<transitSchedule><transitStops><stopFacility id="0" linkRefId="389629943_4" name="stop1" x="1.6141632226832656E7" y="-4564170.219945342" /><stopFacility id="1" linkRefId="198451748_9" name="stop2" x="1.6143126101003256E7" y="-4567282.359673435" /></transitStops><transitLine id="Bus trip"><transitRoute id="Bus route"><transportMode>bus</transportMode><routeProfile><stop departureOffset="00:00:00" refId="0" /><stop arrivalOffset="00:00:30" refId="1" /></routeProfile><route><link refId="389629943_4" /><link refId="389629943_5" /><link refId="389629943_6" /><link refId="389629943_7" /><link refId="389629943_8" /><link refId="389629943_9" /><link refId="484847706_0" /><link refId="484847707_0" /><link refId="100784498_0" /><link refId="100784498_1" /><link refId="100784498_2" /><link refId="579387699_0" /><link refId="579387701_0" /><link refId="198452127_0" /><link refId="198452127_1" /><link refId="198452127_2" /><link refId="198452129_0" /><link refId="198452129_1" /><link refId="211260656_0" /><link refId="198452369_0" /><link refId="198451764_0" /><link refId="198451764_1" /><link refId="198451764_2" /><link refId="198451764_3" /><link refId="389071084_0" /><link refId="389071084_1" /><link refId="389071085_0" /><link refId="389071085_1" /><link refId="579388393_0" /><link refId="579388393_1" /><link refId="579388393_2" /><link refId="579388391_0" /><link refId="198451748_0" /><link refId="198451748_1" /><link refId="198451748_2" /><link refId="198451748_3" /><link refId="198451748_4" /><link refId="198451748_5" /><link refId="198451748_6" /><link refId="198451748_7" /><link refId="198451748_8" /><link refId="198451748_9" /></route><departures><departure departureTime="00:00:00" id="0" vehicleRefId="bus_0" /><departure departureTime="00:00:01" id="1" vehicleRefId="bus_1" /><departure departureTime="00:00:02" id="2" vehicleRefId="bus_2" /><departure departureTime="00:00:03" id="3" vehicleRefId="bus_3" /><departure departureTime="00:00:04" id="4" vehicleRefId="bus_4" /><departure departureTime="00:00:05" id="5" vehicleRefId="bus_5" /><departure departureTime="00:00:06" id="6" vehicleRefId="bus_6" /><departure departureTime="00:00:07" id="7" vehicleRefId="bus_7" /><departure departureTime="00:00:08" id="8" vehicleRefId="bus_8" /><departure departureTime="00:00:09" id="9" vehicleRefId="bus_9" /><departure departureTime="00:00:10" id="10" vehicleRefId="bus_10" /><departure departureTime="00:00:11" id="11" vehicleRefId="bus_11" /><departure departureTime="00:00:12" id="12" vehicleRefId="bus_12" /><departure departureTime="00:00:13" id="13" vehicleRefId="bus_13" /><departure departureTime="00:00:14" id="14" vehicleRefId="bus_14" /><departure departureTime="00:00:15" id="15" vehicleRefId="bus_15" /><departure departureTime="00:00:16" id="16" vehicleRefId="bus_16" /><departure departureTime="00:00:17" id="17" vehicleRefId="bus_17" /><departure departureTime="00:00:18" id="18" vehicleRefId="bus_18" /><departure departureTime="00:00:19" id="19" vehicleRefId="bus_19" /><departure departureTime="00:00:20" id="20" vehicleRefId="bus_20" /><departure departureTime="00:00:21" id="21" vehicleRefId="bus_21" /><departure departureTime="00:00:22" id="22" vehicleRefId="bus_22" /><departure departureTime="00:00:23" id="23" vehicleRefId="bus_23" /><departure departureTime="00:00:24" id="24" vehicleRefId="bus_24" /><departure departureTime="00:00:25" id="25" vehicleRefId="bus_25" /><departure departureTime="00:00:26" id="26" vehicleRefId="bus_26" /><departure departureTime="00:00:27" id="27" vehicleRefId="bus_27" /><departure departureTime="00:00:28" id="28" vehicleRefId="bus_28" /><departure departureTime="00:00:29" id="29" vehicleRefId="bus_29" /><departure departureTime="00:00:30" id="30" vehicleRefId="bus_30" /><departure departureTime="00:00:31" id="31" vehicleRefId="bus_31" /><departure departureTime="00:00:32" id="32" vehicleRefId="bus_32" /><departure departureTime="00:00:33" id="33" vehicleRefId="bus_33" /><departure departureTime="00:00:34" id="34" vehicleRefId="bus_34" /><departure departureTime="00:00:35" id="35" vehicleRefId="bus_35" /><departure departureTime="00:00:36" id="36" vehicleRefId="bus_36" /><departure departureTime="00:00:37" id="37" vehicleRefId="bus_37" /><departure departureTime="00:00:38" id="38" vehicleRefId="bus_38" /><departure departureTime="00:00:39" id="39" vehicleRefId="bus_39" /><departure departureTime="00:00:40" id="40" vehicleRefId="bus_40" /><departure departureTime="00:00:41" id="41" vehicleRefId="bus_41" /><departure departureTime="00:00:42" id="42" vehicleRefId="bus_42" /><departure departureTime="00:00:43" id="43" vehicleRefId="bus_43" /><departure departureTime="00:00:44" id="44" vehicleRefId="bus_44" /><departure departureTime="00:00:45" id="45" vehicleRefId="bus_45" /><departure departureTime="00:00:46" id="46" vehicleRefId="bus_46" /><departure departureTime="00:00:47" id="47" vehicleRefId="bus_47" /><departure departureTime="00:00:48" id="48" vehicleRefId="bus_48" /><departure departureTime="00:00:49" id="49" vehicleRefId="bus_49" /><departure departureTime="00:00:50" id="50" vehicleRefId="bus_50" /><departure departureTime="00:00:51" id="51" vehicleRefId="bus_51" /><departure departureTime="00:00:52" id="52" vehicleRefId="bus_52" /><departure departureTime="00:00:53" id="53" vehicleRefId="bus_53" /><departure departureTime="00:00:54" id="54" vehicleRefId="bus_54" /><departure departureTime="00:00:55" id="55" vehicleRefId="bus_55" /><departure departureTime="00:00:56" id="56" vehicleRefId="bus_56" /><departure departureTime="00:00:57" id="57" vehicleRefId="bus_57" /><departure departureTime="00:00:58" id="58" vehicleRefId="bus_58" /><departure departureTime="00:00:59" id="59" vehicleRefId="bus_59" /><departure departureTime="00:01:00" id="60" vehicleRefId="bus_60" /><departure departureTime="00:01:01" id="61" vehicleRefId="bus_61" /><departure departureTime="00:01:02" id="62" vehicleRefId="bus_62" /><departure departureTime="00:01:03" id="63" vehicleRefId="bus_63" /><departure departureTime="00:01:04" id="64" vehicleRefId="bus_64" /><departure departureTime="00:01:05" id="65" vehicleRefId="bus_65" /><departure departureTime="00:01:06" id="66" vehicleRefId="bus_66" /><departure departureTime="00:01:07" id="67" vehicleRefId="bus_67" /><departure departureTime="00:01:08" id="68" vehicleRefId="bus_68" /><departure departureTime="00:01:09" id="69" vehicleRefId="bus_69" /><departure departureTime="00:01:10" id="70" vehicleRefId="bus_70" /><departure departureTime="00:01:11" id="71" vehicleRefId="bus_71" /><departure departureTime="00:01:12" id="72" vehicleRefId="bus_72" /><departure departureTime="00:01:13" id="73" vehicleRefId="bus_73" /><departure departureTime="00:01:14" id="74" vehicleRefId="bus_74" /><departure departureTime="00:01:15" id="75" vehicleRefId="bus_75" /><departure departureTime="00:01:16" id="76" vehicleRefId="bus_76" /><departure departureTime="00:01:17" id="77" vehicleRefId="bus_77" /><departure departureTime="00:01:18" id="78" vehicleRefId="bus_78" /><departure departureTime="00:01:19" id="79" vehicleRefId="bus_79" /><departure departureTime="00:01:20" id="80" vehicleRefId="bus_80" /><departure departureTime="00:01:21" id="81" vehicleRefId="bus_81" /><departure departureTime="00:01:22" id="82" vehicleRefId="bus_82" /><departure departureTime="00:01:23" id="83" vehicleRefId="bus_83" /><departure departureTime="00:01:24" id="84" vehicleRefId="bus_84" /><departure departureTime="00:01:25" id="85" vehicleRefId="bus_85" /><departure departureTime="00:01:26" id="86" vehicleRefId="bus_86" /><departure departureTime="00:01:27" id="87" vehicleRefId="bus_87" /><departure departureTime="00:01:28" id="88" vehicleRefId="bus_88" /><departure departureTime="00:01:29" id="89" vehicleRefId="bus_89" /><departure departureTime="00:01:30" id="90" vehicleRefId="bus_90" /><departure departureTime="00:01:31" id="91" vehicleRefId="bus_91" /><departure departureTime="00:01:32" id="92" vehicleRefId="bus_92" /><departure departureTime="00:01:33" id="93" vehicleRefId="bus_93" /><departure departureTime="00:01:34" id="94" vehicleRefId="bus_94" /><departure departureTime="00:01:35" id="95" vehicleRefId="bus_95" /><departure departureTime="00:01:36" id="96" vehicleRefId="bus_96" /><departure departureTime="00:01:37" id="97" vehicleRefId="bus_97" /><departure departureTime="00:01:38" id="98" vehicleRefId="bus_98" /><departure departureTime="00:01:39" id="99" vehicleRefId="bus_99" /><departure departureTime="00:01:40" id="100" vehicleRefId="bus_100" /><departure departureTime="00:01:41" id="101" vehicleRefId="bus_101" /><departure departureTime="00:01:42" id="102" vehicleRefId="bus_102" /><departure departureTime="00:01:43" id="103" vehicleRefId="bus_103" /><departure departureTime="00:01:44" id="104" vehicleRefId="bus_104" /><departure departureTime="00:01:45" id="105" vehicleRefId="bus_105" /><departure departureTime="00:01:46" id="106" vehicleRefId="bus_106" /><departure departureTime="00:01:47" id="107" vehicleRefId="bus_107" /><departure departureTime="00:01:48" id="108" vehicleRefId="bus_108" /><departure departureTime="00:01:49" id="109" vehicleRefId="bus_109" /><departure departureTime="00:01:50" id="110" vehicleRefId="bus_110" /><departure departureTime="00:01:51" id="111" vehicleRefId="bus_111" /><departure departureTime="00:01:52" id="112" vehicleRefId="bus_112" /><departure departureTime="00:01:53" id="113" vehicleRefId="bus_113" /><departure departureTime="00:01:54" id="114" vehicleRefId="bus_114" /><departure departureTime="00:01:55" id="115" vehicleRefId="bus_115" /><departure departureTime="00:01:56" id="116" vehicleRefId="bus_116" /><departure departureTime="00:01:57" id="117" vehicleRefId="bus_117" /><departure departureTime="00:01:58" id="118" vehicleRefId="bus_118" /><departure departureTime="00:01:59" id="119" vehicleRefId="bus_119" /><departure departureTime="00:02:00" id="120" vehicleRefId="bus_120" /><departure departureTime="00:02:01" id="121" vehicleRefId="bus_121" /><departure departureTime="00:02:02" id="122" vehicleRefId="bus_122" /><departure departureTime="00:02:03" id="123" vehicleRefId="bus_123" /><departure departureTime="00:02:04" id="124" vehicleRefId="bus_124" /><departure departureTime="00:02:05" id="125" vehicleRefId="bus_125" /><departure departureTime="00:02:06" id="126" vehicleRefId="bus_126" /><departure departureTime="00:02:07" id="127" vehicleRefId="bus_127" /><departure departureTime="00:02:08" id="128" vehicleRefId="bus_128" /><departure departureTime="00:02:09" id="129" vehicleRefId="bus_129" /><departure departureTime="00:02:10" id="130" vehicleRefId="bus_130" /><departure departureTime="00:02:11" id="131" vehicleRefId="bus_131" /><departure departureTime="00:02:12" id="132" vehicleRefId="bus_132" /><departure departureTime="00:02:13" id="133" vehicleRefId="bus_133" /><departure departureTime="00:02:14" id="134" vehicleRefId="bus_134" /><departure departureTime="00:02:15" id="135" vehicleRefId="bus_135" /><departure departureTime="00:02:16" id="136" vehicleRefId="bus_136" /><departure departureTime="00:02:17" id="137" vehicleRefId="bus_137" /><departure departureTime="00:02:18" id="138" vehicleRefId="bus_138" /><departure departureTime="00:02:19" id="139" vehicleRefId="bus_139" /><departure departureTime="00:02:20" id="140" vehicleRefId="bus_140" /><departure departureTime="00:02:21" id="141" vehicleRefId="bus_141" /><departure departureTime="00:02:22" id="142" vehicleRefId="bus_142" /><departure departureTime="00:02:23" id="143" vehicleRefId="bus_143" /><departure departureTime="00:02:24" id="144" vehicleRefId="bus_144" /><departure departureTime="00:02:25" id="145" vehicleRefId="bus_145" /><departure departureTime="00:02:26" id="146" vehicleRefId="bus_146" /><departure departureTime="00:02:27" id="147" vehicleRefId="bus_147" /><departure departureTime="00:02:28" id="148" vehicleRefId="bus_148" /><departure departureTime="00:02:29" id="149" vehicleRefId="bus_149" /><departure departureTime="00:02:30" id="150" vehicleRefId="bus_150" /><departure departureTime="00:02:31" id="151" vehicleRefId="bus_151" /><departure departureTime="00:02:32" id="152" vehicleRefId="bus_152" /><departure departureTime="00:02:33" id="153" vehicleRefId="bus_153" /><departure departureTime="00:02:34" id="154" vehicleRefId="bus_154" /><departure departureTime="00:02:35" id="155" vehicleRefId="bus_155" /><departure departureTime="00:02:36" id="156" vehicleRefId="bus_156" /><departure departureTime="00:02:37" id="157" vehicleRefId="bus_157" /><departure departureTime="00:02:38" id="158" vehicleRefId="bus_158" /><departure departureTime="00:02:39" id="159" vehicleRefId="bus_159" /><departure departureTime="00:02:40" id="160" vehicleRefId="bus_160" /><departure departureTime="00:02:41" id="161" vehicleRefId="bus_161" /><departure departureTime="00:02:42" id="162" vehicleRefId="bus_162" /><departure departureTime="00:02:43" id="163" vehicleRefId="bus_163" /><departure departureTime="00:02:44" id="164" vehicleRefId="bus_164" /><departure departureTime="00:02:45" id="165" vehicleRefId="bus_165" /><departure departureTime="00:02:46" id="166" vehicleRefId="bus_166" /><departure departureTime="00:02:47" id="167" vehicleRefId="bus_167" /><departure departureTime="00:02:48" id="168" vehicleRefId="bus_168" /><departure departureTime="00:02:49" id="169" vehicleRefId="bus_169" /><departure departureTime="00:02:50" id="170" vehicleRefId="bus_170" /><departure departureTime="00:02:51" id="171" vehicleRefId="bus_171" /><departure departureTime="00:02:52" id="172" vehicleRefId="bus_172" /><departure departureTime="00:02:53" id="173" vehicleRefId="bus_173" /><departure departureTime="00:02:54" id="174" vehicleRefId="bus_174" /><departure departureTime="00:02:55" id="175" vehicleRefId="bus_175" /><departure departureTime="00:02:56" id="176" vehicleRefId="bus_176" /><departure departureTime="00:02:57" id="177" vehicleRefId="bus_177" /><departure departureTime="00:02:58" id="178" vehicleRefId="bus_178" /><departure departureTime="00:02:59" id="179" vehicleRefId="bus_179" /><departure departureTime="00:03:00" id="180" vehicleRefId="bus_180" /><departure departureTime="00:03:01" id="181" vehicleRefId="bus_181" /><departure departureTime="00:03:02" id="182" vehicleRefId="bus_182" /><departure departureTime="00:03:03" id="183" vehicleRefId="bus_183" /><departure departureTime="00:03:04" id="184" vehicleRefId="bus_184" /><departure departureTime="00:03:05" id="185" vehicleRefId="bus_185" /><departure departureTime="00:03:06" id="186" vehicleRefId="bus_186" /><departure departureTime="00:03:07" id="187" vehicleRefId="bus_187" /><departure departureTime="00:03:08" id="188" vehicleRefId="bus_188" /><departure departureTime="00:03:09" id="189" vehicleRefId="bus_189" /><departure departureTime="00:03:10" id="190" vehicleRefId="bus_190" /><departure departureTime="00:03:11" id="191" vehicleRefId="bus_191" /><departure departureTime="00:03:12" id="192" vehicleRefId="bus_192" /><departure departureTime="00:03:13" id="193" vehicleRefId="bus_193" /><departure departureTime="00:03:14" id="194" vehicleRefId="bus_194" /><departure departureTime="00:03:15" id="195" vehicleRefId="bus_195" /><departure departureTime="00:03:16" id="196" vehicleRefId="bus_196" /><departure departureTime="00:03:17" id="197" vehicleRefId="bus_197" /><departure departureTime="00:03:18" id="198" vehicleRefId="bus_198" /><departure departureTime="00:03:19" id="199" vehicleRefId="bus_199" /></departures></transitRoute></transitLine></transitSchedule>