<?xml version="1.0" encoding="utf-8"?>
<!DOCTYPE transitSchedule SYSTEM "http://www.matsim.org/files/dtd/transitSchedule_v1.dtd">
<transitSchedule><transitStops><stopFacility id="0" linkRefId="389629943_4" name="stop1" x="1.6141632226832656E7" y="-4564170.219945342" /><stopFacility id="1" linkRefId="198451748_9" name="stop2" x="1.6143126101003256E7" y="-4567282.359673435" /></transitStops><transitLine id="Bus trip"><transitRoute id="Bus route"><transportMode>bus</transportMode><routeProfile><stop departureOffset="00:00:00" refId="0" /><stop arrivalOffset="00:00:30" refId="1" /></routeProfile><route><link refId="389629943_4" /><link refId="389629943_5" /><link refId="389629943_6" /><link refId="389629943_7" /><link refId="389629943_8" /><link refId="389629943_9" /><link refId="484847706_0" /><link refId="484847707_0" /><link refId="100784498_0" /><link refId="100784498_1" /><link refId="100784498_2" /><link refId="579387699_0" /><link refId="579387701_0" /><link refId="198452127_0" /><link refId="198452127_1" /><link refId="198452127_2" /><link refId="198452129_0" /><link refId="198452129_1" /><link refId="211260656_0" /><link refId="198452369_0" /><link refId="198451764_0" /><link refId="198451764_1" /><link refId="198451764_2" /><link refId="198451764_3" /><link refId="389071084_0" /><link refId="389071084_1" /><link refId="389071085_0" /><link refId="389071085_1" /><link refId="579388393_0" /><link refId="579388393_1" /><link refId="579388393_2" /><link refId="579388391_0" /><link refId="198451748_0" /><link refId="198451748_1" /><link refId="198451748_2" /><link refId="198451748_3" /><link refId="198451748_4" /><link refId="198451748_5" /><link refId="198451748_6" /><link refId="198451748_7" /><link refId="198451748_8" /><link refId="198451748_9" /></route><departures><departure departureTime="00:00:00" id="0" vehicleRefId="bus_0" /></departures></transitRoute></transitLine></transitSchedule>