<?xml version="1.0" encoding="utf-8"?>
<!DOCTYPE transitSchedule SYSTEM "http://www.matsim.org/files/dtd/transitSchedule_v1.dtd">
<transitSchedule><transitStops><stopFacility id="0" linkRefId="389629943_4" name="stop1" x="1.6141632226832656E7" y="-4564170.219945342" /><stopFacility id="1" linkRefId="198451748_9" name="stop2" x="1.6143126101003256E7" y="-4567282.359673435" /></transitStops><transitLine id="Bus trip"><transitRoute id="Bus route"><transportMode>bus</transportMode><routeProfile><stop departureOffset="00:00:00" refId="0" /><stop arrivalOffset="00:00:30" refId="1" /></routeProfile><route><link refId="389629943_4" /><link refId="389629943_5" /><link refId="389629943_6" /><link refId="389629943_7" /><link refId="389629943_8" /><link refId="389629943_9" /><link refId="484847706_0" /><link refId="484847707_0" /><link refId="100784498_0" /><link refId="100784498_1" /><link refId="100784498_2" /><link refId="579387699_0" /><link refId="579387701_0" /><link refId="198452127_0" /><link refId="198452127_1" /><link refId="198452127_2" /><link refId="198452129_0" /><link refId="198452129_1" /><link refId="211260656_0" /><link refId="198452369_0" /><link refId="198451764_0" /><link refId="198451764_1" /><link refId="198451764_2" /><link refId="198451764_3" /><link refId="389071084_0" /><link refId="389071084_1" /><link refId="389071085_0" /><link refId="389071085_1" /><link refId="579388393_0" /><link refId="579388393_1" /><link refId="579388393_2" /><link refId="579388391_0" /><link refId="198451748_0" /><link refId="198451748_1" /><link refId="198451748_2" /><link refId="198451748_3" /><link refId="198451748_4" /><link refId="198451748_5" /><link refId="198451748_6" /><link refId="198451748_7" /><link refId="198451748_8" /><link refId="198451748_9" /></route><departures><departure departureTime="00:00:00" id="0" vehicleRefId="bus_0" /><departure departureTime="00:11:00" id="1" vehicleRefId="bus_0" /><departure departureTime="00:22:00" id="2" vehicleRefId="bus_0" /><departure departureTime="00:33:00" id="3" vehicleRefId="bus_0" /><departure departureTime="00:44:00" id="4" vehicleRefId="bus_0" /><departure departureTime="00:55:00" id="5" vehicleRefId="bus_0" /><departure departureTime="01:06:00" id="6" vehicleRefId="bus_0" /><departure departureTime="01:17:00" id="7" vehicleRefId="bus_0" /><departure departureTime="01:28:00" id="8" vehicleRefId="bus_0" /><departure departureTime="01:39:00" id="9" vehicleRefId="bus_0" /><departure departureTime="01:50:00" id="10" vehicleRefId="bus_0" /><departure departureTime="02:01:00" id="11" vehicleRefId="bus_0" /><departure departureTime="02:12:00" id="12" vehicleRefId="bus_0" /><departure departureTime="02:23:00" id="13" vehicleRefId="bus_0" /><departure departureTime="02:34:00" id="14" vehicleRefId="bus_0" /><departure departureTime="02:45:00" id="15" vehicleRefId="bus_0" /><departure departureTime="02:56:00" id="16" vehicleRefId="bus_0" /><departure departureTime="03:07:00" id="17" vehicleRefId="bus_0" /><departure departureTime="03:18:00" id="18" vehicleRefId="bus_0" /><departure departureTime="03:29:00" id="19" vehicleRefId="bus_0" /><departure departureTime="03:40:00" id="20" vehicleRefId="bus_0" /><departure departureTime="03:51:00" id="21" vehicleRefId="bus_0" /><departure departureTime="04:02:00" id="22" vehicleRefId="bus_0" /><departure departureTime="04:13:00" id="23" vehicleRefId="bus_0" /><departure departureTime="04:24:00" id="24" vehicleRefId="bus_0" /><departure departureTime="04:35:00" id="25" vehicleRefId="bus_0" /><departure departureTime="04:46:00" id="26" vehicleRefId="bus_0" /><departure departureTime="04:57:00" id="27" vehicleRefId="bus_0" /><departure departureTime="05:08:00" id="28" vehicleRefId="bus_0" /><departure departureTime="05:19:00" id="29" vehicleRefId="bus_0" /><departure departureTime="05:30:00" id="30" vehicleRefId="bus_1" /><departure departureTime="05:41:00" id="31" vehicleRefId="bus_0" /><departure departureTime="05:52:00" id="32" vehicleRefId="bus_1" /><departure departureTime="06:03:00" id="33" vehicleRefId="bus_0" /><departure departureTime="06:14:00" id="34" vehicleRefId="bus_1" /><departure departureTime="06:25:00" id="35" vehicleRefId="bus_0" /><departure departureTime="06:36:00" id="36" vehicleRefId="bus_1" /><departure departureTime="06:47:00" id="37" vehicleRefId="bus_0" /><departure departureTime="06:58:00" id="38" vehicleRefId="bus_1" /><departure departureTime="07:09:00" id="39" vehicleRefId="bus_0" /><departure departureTime="07:20:00" id="40" vehicleRefId="bus_1" /><departure departureTime="07:31:00" id="41" vehicleRefId="bus_0" /><departure departureTime="07:42:00" id="42" vehicleRefId="bus_1" /><departure departureTime="07:53:00" id="43" vehicleRefId="bus_0" /><departure departureTime="08:04:00" id="44" vehicleRefId="bus_1" /><departure departureTime="08:15:00" id="45" vehicleRefId="bus_0" /><departure departureTime="08:26:00" id="46" vehicleRefId="bus_1" /><departure departureTime="08:37:00" id="47" vehicleRefId="bus_0" /><departure departureTime="08:48:00" id="48" vehicleRefId="bus_1" /></departures></transitRoute></transitLine></transitSchedule>